/*--------------------------------*- C++ -*----------------------------------*\
  =========                 |
  \\      /  F ield         | OpenFOAM: The Open Source CFD Toolbox
   \\    /   O peration     | Website:  https://openfoam.org
    \\  /    A nd           | Version:  7
     \\/     M anipulation  |
\*---------------------------------------------------------------------------*/
FoamFile
{
    version     2.0;
    format      ascii;
    class       polyBoundaryMesh;
    location    "constant/polyMesh";
    object      boundary;
}
// * * * * * * * * * * * * * * * * * * * * * * * * * * * * * * * * * * * * * //

6
(
    top
    {
        type            patch;
        nFaces          1;
        startFace       99;
    }
    left
    {
        type            empty;
        inGroups        List<word> 1(empty);
        nFaces          100;
        startFace       100;
    }
    right
    {
        type            empty;
        inGroups        List<word> 1(empty);
        nFaces          100;
        startFace       200;
    }
    front
    {
        type            empty;
        inGroups        List<word> 1(empty);
        nFaces          100;
        startFace       300;
    }
    back
    {
        type            empty;
        inGroups        List<word> 1(empty);
        nFaces          100;
        startFace       400;
    }
    bottom
    {
        type            patch;
        nFaces          1;
        startFace       500;
    }
)

// ************************************************************************* //
