/*--------------------------------*- C++ -*----------------------------------*\
  =========                 |
  \\      /  F ield         | OpenFOAM: The Open Source CFD Toolbox
   \\    /   O peration     | Website:  https://openfoam.org
    \\  /    A nd           | Version:  7
     \\/     M anipulation  |
\*---------------------------------------------------------------------------*/
FoamFile
{
    version         2;
    format          ascii;
    class           volVectorField;
    object          darcyFlux;
}

dimensions      [ 0 1 -1 0 0 0 0 ];

internalField   uniform ( 0 0 -0.006278 );

boundaryField
{
    "(front|back|right|left)"
    {
        type            empty;
    }
    "(top|bottom)"
    {
        type            zeroGradient;
    }
}


// ************************************************************************* //
