/*--------------------------------*- C++ -*----------------------------------*\
  =========                 |
  \\      /  F ield         | OpenFOAM: The Open Source CFD Toolbox
   \\    /   O peration     | Website:  https://openfoam.org
    \\  /    A nd           | Version:  7
     \\/     M anipulation  |
\*---------------------------------------------------------------------------*/
FoamFile
{
    version     2.0;
    format      ascii;
    class       volScalarField;
    object      pfba_aq;
}
// * * * * * * * * * * * * * * * * * * * * * * * * * * * * * * * * * * * * * //

dimensions      [1 -3 0 0 0 0 0];


internalField   uniform 0;

boundaryField
{
    "(front|back|right|left)"
    {
        type    empty;
    }
    
    top
    {
        type               uniformInletOutlet;
        /*
        In the 3-min experiment
            - PFBA = 1032 ng/L = 1.032E-6 kg/m³
        */
        uniformInletValue  constant 1.032E-6;
        phi                phi;
    }

    bottom
    {
        type            zeroGradient;
    }
}

// ************************************************************************* //
