/*--------------------------------*- C++ -*----------------------------------*\
  =========                 |
  \\      /  F ield         | OpenFOAM: The Open Source CFD Toolbox
   \\    /   O peration     | Website:  https://openfoam.org
    \\  /    A nd           | Version:  7
     \\/     M anipulation  |
\*---------------------------------------------------------------------------*/
FoamFile
{
    version     2.0;
    format      ascii;
    class       dictionary;
    location    "constant";
    object      transportProperties;
}
// * * * * * * * * * * * * * * * * * * * * * * * * * * * * * * * * * * * * * //

DT              DT          [0 2 -1 0 0 0 0]    6e-10;
porosity        porosity    [0 0  0 0 0 0 0]    0.50;

k_adsorption
{
    pfoa    pfoa  [0 0 -1 0 0 0 0]       2;
    pfhxa   pfhxa [0 0 -1 0 0 0 0]       0;
    pfhxs   pfhxs [0 0 -1 0 0 0 0]       0;
    bez     bez   [0 0 -1 0 0 0 0]       0;
    dcf     dcf   [0 0 -1 0 0 0 0]       0;
    pfba    pfba  [0 0 -1 0 0 0 0]       1;
    genx    genx  [0 0 -1 0 0 0 0]       0;
    OM      OM    [0 0 -1 0 0 0 0]       0.2;
}

k_desorption
{
    pfoa    pfoa  [0 0 -1 0 0 0 0]       0;
    pfhxa   pfhxa [0 0 -1 0 0 0 0]       0;
    pfhxs   pfhxs [0 0 -1 0 0 0 0]       0;
    bez     bez   [0 0 -1 0 0 0 0]       0;
    dcf     dcf   [0 0 -1 0 0 0 0]       0;
    pfba    pfba  [0 0 -1 0 0 0 0]       0;
    genx    genx  [0 0 -1 0 0 0 0]       0;
    OM      OM    [0 0 -1 0 0 0 0]       0;
}

/*
If retention capacity is negative, solver will ignore
    site blocking effects
*/
retention_capacity  retention_capacity [1 -3 0 0 0 0 0]   0.5;

// ************************************************************************* //
